*HEADING
3D aluminium plate, A0 wave interaction with flat bottom hole. SI units (kg, m, s, N).
Total dimensions: Nwidth els by Nheight els by d/Element_dim els including Nlayers concentric absorbing layers.  
***********************************************************************************
*Part, name=Part-1
***********************************************************************************
***********************************************************************************
***********************************************************************************
**Input parameters
*parameter
Nwidth=1200 				# Width of the plate with absorbing region (els)
Nheight=1200				# Height of the plate with absorbing region (els)
Nlayers=100             		# Thickness of the absorbing region (els)
Element_dim=0.001			# Element size (m)
d=0.010 				# Thickness of the plate (m)
Time_step=5e-007/6			# Sampling length of the signal (s)
**-XZ only do a single time step, and apply zero load
Total_time = Time_step		
**-XZ
Time_output_step=5e-007			# Sampling length of the recorded signal (s)
Time_step_new=5e-007/6*7200
***********************************************************************************
***********************************************************************************
***********************************************************************************
*parameter
Plate_height=Nheight*Element_dim
Plate_width=Nwidth*Element_dim
Nrows=Nheight+1
Last_column_first_node=1+Nrows*Nwidth
Last_column_last_node=Nrows*Nwidth+Nrows
z1=d-9*Element_dim
z2=d-8*Element_dim
z3=d-7*Element_dim
z4=d-6*Element_dim
z5=d-5*Element_dim
z6=d-4*Element_dim
z7=d-3*Element_dim
z8=d-2*Element_dim
z9=d-Element_dim
Actual_plate_height=Nheight-2*Nlayers
Actual_plate_width=Nwidth-2*Nlayers
*NODE
1,0.0,0.0,0.0
<Nrows>,0.0,<Plate_height>,0.0
*NGEN,NSET=First
1,<Nrows>,1
**
*NODE
<Last_column_first_node>,<Plate_width>,0.0,0.0
<Last_column_last_node>,<Plate_width>,<Plate_height>,0.0
*NGEN,NSET=Last
<Last_column_first_node>,<Last_column_last_node>,1
**
*NFILL,NSET=totalplate
First,Last,<Nwidth>,<Nrows>
*NCOPY, OLD SET=totalplate, CHANGE NUMBER=10000000,NEW SET=totalplate_2,SHIFT
0,0,<z1>
*NCOPY, OLD SET=totalplate, CHANGE NUMBER=20000000,NEW SET=totalplate_3,SHIFT
0,0,<z2>
*NCOPY, OLD SET=totalplate, CHANGE NUMBER=30000000,NEW SET=totalplate_4,SHIFT
0,0,<z3>
*NCOPY, OLD SET=totalplate, CHANGE NUMBER=40000000,NEW SET=totalplate_5,SHIFT
0,0,<z4>
*NCOPY, OLD SET=totalplate, CHANGE NUMBER=50000000,NEW SET=totalplate_6,SHIFT
0,0,<z5>
*NCOPY, OLD SET=totalplate, CHANGE NUMBER=60000000,NEW SET=totalplate_7,SHIFT
0,0,<z6>
*NCOPY, OLD SET=totalplate, CHANGE NUMBER=70000000,NEW SET=totalplate_8,SHIFT
0,0,<z7>
*NCOPY, OLD SET=totalplate, CHANGE NUMBER=80000000,NEW SET=totalplate_9,SHIFT
0,0,<z8>
*NCOPY, OLD SET=totalplate, CHANGE NUMBER=90000000,NEW SET=totalplate_10,SHIFT
0,0,<z9>
*NCOPY, OLD SET=totalplate, CHANGE NUMBER=100000000,NEW SET=totalplate_11,SHIFT
0,0,<d>
**
***********************************************************************************
**Definition of the elements for actual plate
***********************************************************************************
**Metal_plate 
***********************************************************************************
*parameter
First_element_second_node_region1=Nrows+1
First_element_third_node_region1=Nrows+2
First_element_6_node_region1=First_element_second_node_region1+10000000
First_element_7_node_region1=First_element_third_node_region1+10000000
*ELEMENT,TYPE=C3D8R
1,1,<First_element_second_node_region1>,<First_element_third_node_region1>,2,10000001,<First_element_6_node_region1>,<First_element_7_node_region1>,10000002
*ELGEN,ELSET=Whole_plate
1,<Nwidth>,<Nrows>,<Nheight>,<Nheight>,1,1
*parameter
First_element_plate=Nlayers*Nheight+Nlayers+1
*ELGEN,ELSET=Metal_plate_part1
<First_element_plate>,<Actual_plate_width>,<Nrows>,<Nheight>,<Actual_plate_height>,1,1
*ELCOPY,OLD SET=Metal_plate_part1,NEW SET=Metal_plate_part2,ELEMENT SHIFT=10000000,SHIFT NODES=10000000
*ELCOPY,OLD SET=Metal_plate_part1,NEW SET=Metal_plate_part3,ELEMENT SHIFT=20000000,SHIFT NODES=20000000
*ELCOPY,OLD SET=Metal_plate_part1,NEW SET=Metal_plate_part4,ELEMENT SHIFT=30000000,SHIFT NODES=30000000
*ELCOPY,OLD SET=Metal_plate_part1,NEW SET=Metal_plate_part5,ELEMENT SHIFT=40000000,SHIFT NODES=40000000
*ELCOPY,OLD SET=Metal_plate_part1,NEW SET=Metal_plate_part6,ELEMENT SHIFT=50000000,SHIFT NODES=50000000
*ELCOPY,OLD SET=Metal_plate_part1,NEW SET=Metal_plate_part7,ELEMENT SHIFT=60000000,SHIFT NODES=60000000
*ELCOPY,OLD SET=Metal_plate_part1,NEW SET=Metal_plate_part8,ELEMENT SHIFT=70000000,SHIFT NODES=70000000
*ELCOPY,OLD SET=Metal_plate_part1,NEW SET=Metal_plate_part9,ELEMENT SHIFT=80000000,SHIFT NODES=80000000
*ELCOPY,OLD SET=Metal_plate_part1,NEW SET=Metal_plate_part10,ELEMENT SHIFT=90000000,SHIFT NODES=90000000
***********************************************************************************
**Definition of absorbing boundary layers of the upper set, use for this Matlab file
**absorber_fd_alpha_04.m
***********************************************************************************
**
*ELSET, ELSET=layer1, GENERATE
2,1199,1
1200,1440000,1200
1438802,1439999,1
1,1438801,1200
*ELSET, ELSET=layer2, GENERATE
1203,2398,1
2399,1438799,1200
1437603,1438798,1
1202,1437602,1200
*ELSET, ELSET=layer3, GENERATE
2404,3597,1
3598,1437598,1200
1436404,1437597,1
2403,1436403,1200
*ELSET, ELSET=layer4, GENERATE
3605,4796,1
4797,1436397,1200
1435205,1436396,1
3604,1435204,1200
*ELSET, ELSET=layer5, GENERATE
4806,5995,1
5996,1435196,1200
1434006,1435195,1
4805,1434005,1200
*ELSET, ELSET=layer6, GENERATE
6007,7194,1
7195,1433995,1200
1432807,1433994,1
6006,1432806,1200
*ELSET, ELSET=layer7, GENERATE
7208,8393,1
8394,1432794,1200
1431608,1432793,1
7207,1431607,1200
*ELSET, ELSET=layer8, GENERATE
8409,9592,1
9593,1431593,1200
1430409,1431592,1
8408,1430408,1200
*ELSET, ELSET=layer9, GENERATE
9610,10791,1
10792,1430392,1200
1429210,1430391,1
9609,1429209,1200
*ELSET, ELSET=layer10, GENERATE
10811,11990,1
11991,1429191,1200
1428011,1429190,1
10810,1428010,1200
*ELSET, ELSET=layer11, GENERATE
12012,13189,1
13190,1427990,1200
1426812,1427989,1
12011,1426811,1200
*ELSET, ELSET=layer12, GENERATE
13213,14388,1
14389,1426789,1200
1425613,1426788,1
13212,1425612,1200
*ELSET, ELSET=layer13, GENERATE
14414,15587,1
15588,1425588,1200
1424414,1425587,1
14413,1424413,1200
*ELSET, ELSET=layer14, GENERATE
15615,16786,1
16787,1424387,1200
1423215,1424386,1
15614,1423214,1200
*ELSET, ELSET=layer15, GENERATE
16816,17985,1
17986,1423186,1200
1422016,1423185,1
16815,1422015,1200
*ELSET, ELSET=layer16, GENERATE
18017,19184,1
19185,1421985,1200
1420817,1421984,1
18016,1420816,1200
*ELSET, ELSET=layer17, GENERATE
19218,20383,1
20384,1420784,1200
1419618,1420783,1
19217,1419617,1200
*ELSET, ELSET=layer18, GENERATE
20419,21582,1
21583,1419583,1200
1418419,1419582,1
20418,1418418,1200
*ELSET, ELSET=layer19, GENERATE
21620,22781,1
22782,1418382,1200
1417220,1418381,1
21619,1417219,1200
*ELSET, ELSET=layer20, GENERATE
22821,23980,1
23981,1417181,1200
1416021,1417180,1
22820,1416020,1200
*ELSET, ELSET=layer21, GENERATE
24022,25179,1
25180,1415980,1200
1414822,1415979,1
24021,1414821,1200
*ELSET, ELSET=layer22, GENERATE
25223,26378,1
26379,1414779,1200
1413623,1414778,1
25222,1413622,1200
*ELSET, ELSET=layer23, GENERATE
26424,27577,1
27578,1413578,1200
1412424,1413577,1
26423,1412423,1200
*ELSET, ELSET=layer24, GENERATE
27625,28776,1
28777,1412377,1200
1411225,1412376,1
27624,1411224,1200
*ELSET, ELSET=layer25, GENERATE
28826,29975,1
29976,1411176,1200
1410026,1411175,1
28825,1410025,1200
*ELSET, ELSET=layer26, GENERATE
30027,31174,1
31175,1409975,1200
1408827,1409974,1
30026,1408826,1200
*ELSET, ELSET=layer27, GENERATE
31228,32373,1
32374,1408774,1200
1407628,1408773,1
31227,1407627,1200
*ELSET, ELSET=layer28, GENERATE
32429,33572,1
33573,1407573,1200
1406429,1407572,1
32428,1406428,1200
*ELSET, ELSET=layer29, GENERATE
33630,34771,1
34772,1406372,1200
1405230,1406371,1
33629,1405229,1200
*ELSET, ELSET=layer30, GENERATE
34831,35970,1
35971,1405171,1200
1404031,1405170,1
34830,1404030,1200
*ELSET, ELSET=layer31, GENERATE
36032,37169,1
37170,1403970,1200
1402832,1403969,1
36031,1402831,1200
*ELSET, ELSET=layer32, GENERATE
37233,38368,1
38369,1402769,1200
1401633,1402768,1
37232,1401632,1200
*ELSET, ELSET=layer33, GENERATE
38434,39567,1
39568,1401568,1200
1400434,1401567,1
38433,1400433,1200
*ELSET, ELSET=layer34, GENERATE
39635,40766,1
40767,1400367,1200
1399235,1400366,1
39634,1399234,1200
*ELSET, ELSET=layer35, GENERATE
40836,41965,1
41966,1399166,1200
1398036,1399165,1
40835,1398035,1200
*ELSET, ELSET=layer36, GENERATE
42037,43164,1
43165,1397965,1200
1396837,1397964,1
42036,1396836,1200
*ELSET, ELSET=layer37, GENERATE
43238,44363,1
44364,1396764,1200
1395638,1396763,1
43237,1395637,1200
*ELSET, ELSET=layer38, GENERATE
44439,45562,1
45563,1395563,1200
1394439,1395562,1
44438,1394438,1200
*ELSET, ELSET=layer39, GENERATE
45640,46761,1
46762,1394362,1200
1393240,1394361,1
45639,1393239,1200
*ELSET, ELSET=layer40, GENERATE
46841,47960,1
47961,1393161,1200
1392041,1393160,1
46840,1392040,1200
*ELSET, ELSET=layer41, GENERATE
48042,49159,1
49160,1391960,1200
1390842,1391959,1
48041,1390841,1200
*ELSET, ELSET=layer42, GENERATE
49243,50358,1
50359,1390759,1200
1389643,1390758,1
49242,1389642,1200
*ELSET, ELSET=layer43, GENERATE
50444,51557,1
51558,1389558,1200
1388444,1389557,1
50443,1388443,1200
*ELSET, ELSET=layer44, GENERATE
51645,52756,1
52757,1388357,1200
1387245,1388356,1
51644,1387244,1200
*ELSET, ELSET=layer45, GENERATE
52846,53955,1
53956,1387156,1200
1386046,1387155,1
52845,1386045,1200
*ELSET, ELSET=layer46, GENERATE
54047,55154,1
55155,1385955,1200
1384847,1385954,1
54046,1384846,1200
*ELSET, ELSET=layer47, GENERATE
55248,56353,1
56354,1384754,1200
1383648,1384753,1
55247,1383647,1200
*ELSET, ELSET=layer48, GENERATE
56449,57552,1
57553,1383553,1200
1382449,1383552,1
56448,1382448,1200
*ELSET, ELSET=layer49, GENERATE
57650,58751,1
58752,1382352,1200
1381250,1382351,1
57649,1381249,1200
*ELSET, ELSET=layer50, GENERATE
58851,59950,1
59951,1381151,1200
1380051,1381150,1
58850,1380050,1200
*ELSET, ELSET=layer51, GENERATE
60052,61149,1
61150,1379950,1200
1378852,1379949,1
60051,1378851,1200
*ELSET, ELSET=layer52, GENERATE
61253,62348,1
62349,1378749,1200
1377653,1378748,1
61252,1377652,1200
*ELSET, ELSET=layer53, GENERATE
62454,63547,1
63548,1377548,1200
1376454,1377547,1
62453,1376453,1200
*ELSET, ELSET=layer54, GENERATE
63655,64746,1
64747,1376347,1200
1375255,1376346,1
63654,1375254,1200
*ELSET, ELSET=layer55, GENERATE
64856,65945,1
65946,1375146,1200
1374056,1375145,1
64855,1374055,1200
*ELSET, ELSET=layer56, GENERATE
66057,67144,1
67145,1373945,1200
1372857,1373944,1
66056,1372856,1200
*ELSET, ELSET=layer57, GENERATE
67258,68343,1
68344,1372744,1200
1371658,1372743,1
67257,1371657,1200
*ELSET, ELSET=layer58, GENERATE
68459,69542,1
69543,1371543,1200
1370459,1371542,1
68458,1370458,1200
*ELSET, ELSET=layer59, GENERATE
69660,70741,1
70742,1370342,1200
1369260,1370341,1
69659,1369259,1200
*ELSET, ELSET=layer60, GENERATE
70861,71940,1
71941,1369141,1200
1368061,1369140,1
70860,1368060,1200
*ELSET, ELSET=layer61, GENERATE
72062,73139,1
73140,1367940,1200
1366862,1367939,1
72061,1366861,1200
*ELSET, ELSET=layer62, GENERATE
73263,74338,1
74339,1366739,1200
1365663,1366738,1
73262,1365662,1200
*ELSET, ELSET=layer63, GENERATE
74464,75537,1
75538,1365538,1200
1364464,1365537,1
74463,1364463,1200
*ELSET, ELSET=layer64, GENERATE
75665,76736,1
76737,1364337,1200
1363265,1364336,1
75664,1363264,1200
*ELSET, ELSET=layer65, GENERATE
76866,77935,1
77936,1363136,1200
1362066,1363135,1
76865,1362065,1200
*ELSET, ELSET=layer66, GENERATE
78067,79134,1
79135,1361935,1200
1360867,1361934,1
78066,1360866,1200
*ELSET, ELSET=layer67, GENERATE
79268,80333,1
80334,1360734,1200
1359668,1360733,1
79267,1359667,1200
*ELSET, ELSET=layer68, GENERATE
80469,81532,1
81533,1359533,1200
1358469,1359532,1
80468,1358468,1200
*ELSET, ELSET=layer69, GENERATE
81670,82731,1
82732,1358332,1200
1357270,1358331,1
81669,1357269,1200
*ELSET, ELSET=layer70, GENERATE
82871,83930,1
83931,1357131,1200
1356071,1357130,1
82870,1356070,1200
*ELSET, ELSET=layer71, GENERATE
84072,85129,1
85130,1355930,1200
1354872,1355929,1
84071,1354871,1200
*ELSET, ELSET=layer72, GENERATE
85273,86328,1
86329,1354729,1200
1353673,1354728,1
85272,1353672,1200
*ELSET, ELSET=layer73, GENERATE
86474,87527,1
87528,1353528,1200
1352474,1353527,1
86473,1352473,1200
*ELSET, ELSET=layer74, GENERATE
87675,88726,1
88727,1352327,1200
1351275,1352326,1
87674,1351274,1200
*ELSET, ELSET=layer75, GENERATE
88876,89925,1
89926,1351126,1200
1350076,1351125,1
88875,1350075,1200
*ELSET, ELSET=layer76, GENERATE
90077,91124,1
91125,1349925,1200
1348877,1349924,1
90076,1348876,1200
*ELSET, ELSET=layer77, GENERATE
91278,92323,1
92324,1348724,1200
1347678,1348723,1
91277,1347677,1200
*ELSET, ELSET=layer78, GENERATE
92479,93522,1
93523,1347523,1200
1346479,1347522,1
92478,1346478,1200
*ELSET, ELSET=layer79, GENERATE
93680,94721,1
94722,1346322,1200
1345280,1346321,1
93679,1345279,1200
*ELSET, ELSET=layer80, GENERATE
94881,95920,1
95921,1345121,1200
1344081,1345120,1
94880,1344080,1200
*ELSET, ELSET=layer81, GENERATE
96082,97119,1
97120,1343920,1200
1342882,1343919,1
96081,1342881,1200
*ELSET, ELSET=layer82, GENERATE
97283,98318,1
98319,1342719,1200
1341683,1342718,1
97282,1341682,1200
*ELSET, ELSET=layer83, GENERATE
98484,99517,1
99518,1341518,1200
1340484,1341517,1
98483,1340483,1200
*ELSET, ELSET=layer84, GENERATE
99685,100716,1
100717,1340317,1200
1339285,1340316,1
99684,1339284,1200
*ELSET, ELSET=layer85, GENERATE
100886,101915,1
101916,1339116,1200
1338086,1339115,1
100885,1338085,1200
*ELSET, ELSET=layer86, GENERATE
102087,103114,1
103115,1337915,1200
1336887,1337914,1
102086,1336886,1200
*ELSET, ELSET=layer87, GENERATE
103288,104313,1
104314,1336714,1200
1335688,1336713,1
103287,1335687,1200
*ELSET, ELSET=layer88, GENERATE
104489,105512,1
105513,1335513,1200
1334489,1335512,1
104488,1334488,1200
*ELSET, ELSET=layer89, GENERATE
105690,106711,1
106712,1334312,1200
1333290,1334311,1
105689,1333289,1200
*ELSET, ELSET=layer90, GENERATE
106891,107910,1
107911,1333111,1200
1332091,1333110,1
106890,1332090,1200
*ELSET, ELSET=layer91, GENERATE
108092,109109,1
109110,1331910,1200
1330892,1331909,1
108091,1330891,1200
*ELSET, ELSET=layer92, GENERATE
109293,110308,1
110309,1330709,1200
1329693,1330708,1
109292,1329692,1200
*ELSET, ELSET=layer93, GENERATE
110494,111507,1
111508,1329508,1200
1328494,1329507,1
110493,1328493,1200
*ELSET, ELSET=layer94, GENERATE
111695,112706,1
112707,1328307,1200
1327295,1328306,1
111694,1327294,1200
*ELSET, ELSET=layer95, GENERATE
112896,113905,1
113906,1327106,1200
1326096,1327105,1
112895,1326095,1200
*ELSET, ELSET=layer96, GENERATE
114097,115104,1
115105,1325905,1200
1324897,1325904,1
114096,1324896,1200
*ELSET, ELSET=layer97, GENERATE
115298,116303,1
116304,1324704,1200
1323698,1324703,1
115297,1323697,1200
*ELSET, ELSET=layer98, GENERATE
116499,117502,1
117503,1323503,1200
1322499,1323502,1
116498,1322498,1200
*ELSET, ELSET=layer99, GENERATE
117700,118701,1
118702,1322302,1200
1321300,1322301,1
117699,1321299,1200
*ELSET, ELSET=layer100, GENERATE
118901,119900,1
119901,1321101,1200
1320101,1321100,1
118900,1320100,1200
**
***********************************************************************************
**Copy of remaining absorbing boundary layers from the upper set, use for this Matlab file
**absorber_fd_alpha_multiple.m
***********************************************************************************
**
*ELCOPY,OLD SET=layer1,NEW SET=layer101,ELEMENT SHIFT=10000000,SHIFT NODES=10000000
*ELCOPY,OLD SET=layer2,NEW SET=layer102,ELEMENT SHIFT=10000000,SHIFT NODES=10000000
*ELCOPY,OLD SET=layer3,NEW SET=layer103,ELEMENT SHIFT=10000000,SHIFT NODES=10000000
*ELCOPY,OLD SET=layer4,NEW SET=layer104,ELEMENT SHIFT=10000000,SHIFT NODES=10000000
*ELCOPY,OLD SET=layer5,NEW SET=layer105,ELEMENT SHIFT=10000000,SHIFT NODES=10000000
*ELCOPY,OLD SET=layer6,NEW SET=layer106,ELEMENT SHIFT=10000000,SHIFT NODES=10000000
*ELCOPY,OLD SET=layer7,NEW SET=layer107,ELEMENT SHIFT=10000000,SHIFT NODES=10000000
*ELCOPY,OLD SET=layer8,NEW SET=layer108,ELEMENT SHIFT=10000000,SHIFT NODES=10000000
*ELCOPY,OLD SET=layer9,NEW SET=layer109,ELEMENT SHIFT=10000000,SHIFT NODES=10000000
*ELCOPY,OLD SET=layer10,NEW SET=layer110,ELEMENT SHIFT=10000000,SHIFT NODES=10000000
*ELCOPY,OLD SET=layer11,NEW SET=layer111,ELEMENT SHIFT=10000000,SHIFT NODES=10000000
*ELCOPY,OLD SET=layer12,NEW SET=layer112,ELEMENT SHIFT=10000000,SHIFT NODES=10000000
*ELCOPY,OLD SET=layer13,NEW SET=layer113,ELEMENT SHIFT=10000000,SHIFT NODES=10000000
*ELCOPY,OLD SET=layer14,NEW SET=layer114,ELEMENT SHIFT=10000000,SHIFT NODES=10000000
*ELCOPY,OLD SET=layer15,NEW SET=layer115,ELEMENT SHIFT=10000000,SHIFT NODES=10000000
*ELCOPY,OLD SET=layer16,NEW SET=layer116,ELEMENT SHIFT=10000000,SHIFT NODES=10000000
*ELCOPY,OLD SET=layer17,NEW SET=layer117,ELEMENT SHIFT=10000000,SHIFT NODES=10000000
*ELCOPY,OLD SET=layer18,NEW SET=layer118,ELEMENT SHIFT=10000000,SHIFT NODES=10000000
*ELCOPY,OLD SET=layer19,NEW SET=layer119,ELEMENT SHIFT=10000000,SHIFT NODES=10000000
*ELCOPY,OLD SET=layer20,NEW SET=layer120,ELEMENT SHIFT=10000000,SHIFT NODES=10000000
** ... 880 like lines cut
***********************************************************************************
**Definition of hole elements, use for this Matlab file remove_elements.m
***********************************************************************************
*ELSET, ELSET=hole_1_layer_1, GENERATE
  683400,  683400,1
  684593,  684607,1
  685790,  685810,1
  686988,  687012,1
  688186,  688214,1
  689384,  689416,1
  690583,  690617,1
  691781,  691819,1
  692981,  693019,1
  694179,  694221,1
  695379,  695421,1
  696577,  696623,1
  697777,  697823,1
  698976,  699024,1
  700175,  700225,1
  701375,  701425,1
  702574,  702626,1
  703774,  703826,1
  704973,  705027,1
  706173,  706227,1
** ... 40 like lines cut
*ELSET, ELSET=hole_1_layer_2, GENERATE
10685800,10685800,1
10686993,10687007,1
10688191,10688209,1
10689388,10689412,1
10690587,10690613,1
10691785,10691815,1
10692984,10693016,1
10694182,10694218,1
10695382,10695418,1
10696580,10696620,1
10697780,10697820,1
10698978,10699022,1
10700178,10700222,1
10701377,10701423,1
10702576,10702624,1
10703776,10703824,1
10704976,10705024,1
10706175,10706225,1
10707374,10707426,1
10708574,10708626,1
** ... 36 like lines cut
*ELSET, ELSET=hole_1_layer_3, GENERATE
20688200,20688200,1
20689394,20689406,1
20690591,20690609,1
20691789,20691811,1
20692987,20693013,1
20694185,20694215,1
20695384,20695416,1
20696583,20696617,1
20697782,20697818,1
20698981,20699019,1
20700180,20700220,1
20701379,20701421,1
20702579,20702621,1
20703778,20703822,1
20704978,20705022,1
20706177,20706223,1
20707377,20707423,1
20708576,20708624,1
20709776,20709824,1
20710976,20711024,1
** ... 32 like lines cut
*ELSET, ELSET=hole_1_layer_4, GENERATE
30690600,30690600,1
30691794,30691806,1
30692992,30693008,1
30694189,30694211,1
30695388,30695412,1
30696586,30696614,1
30697785,30697815,1
30698984,30699016,1
30700183,30700217,1
30701382,30701418,1
30702581,30702619,1
30703781,30703819,1
30704980,30705020,1
30706180,30706220,1
30707379,30707421,1
30708578,30708622,1
30709778,30709822,1
30710978,30711022,1
30712177,30712223,1
30713377,30713423,1
** ... 28 like lines cut
*ELSET, ELSET=hole_1_layer_5, GENERATE
40693000,40693000,1
40694194,40694206,1
40695392,40695408,1
40696590,40696610,1
40697788,40697812,1
40698987,40699013,1
40700186,40700214,1
40701385,40701415,1
40702584,40702616,1
40703783,40703817,1
40704982,40705018,1
40706182,40706218,1
40707381,40707419,1
40708581,40708619,1
40709780,40709820,1
40710980,40711020,1
40712179,40712221,1
40713379,40713421,1
40714579,40714621,1
40715779,40715821,1
** ... 24 like lines cut
*ELSET, ELSET=hole_2_layer_1, GENERATE
  585000,  585000,1
  586196,  586204,1
  587394,  587406,1
  588593,  588607,1
  589792,  589808,1
  590991,  591009,1
  592190,  592210,1
  593390,  593410,1
  594589,  594611,1
  595789,  595811,1
  596989,  597011,1
  598189,  598211,1
  599389,  599411,1
  600589,  600611,1
  601789,  601811,1
  602989,  603011,1
  604189,  604211,1
  605389,  605411,1
  606590,  606610,1
  607790,  607810,1
** ... 4 like lines cut
*ELSET, ELSET=hole_2_layer_2, GENERATE
10587400,10587400,1
10588597,10588603,1
10589795,10589805,1
10590994,10591006,1
10592193,10592207,1
10593392,10593408,1
10594592,10594608,1
10595791,10595809,1
10596991,10597009,1
10598191,10598209,1
10599390,10599410,1
10600591,10600609,1
10601791,10601809,1
10602991,10603009,1
10604191,10604209,1
10605392,10605408,1
10606592,10606608,1
10607793,10607807,1
10608994,10609006,1
10610195,10610205,1
*ELSET, ELSET=hole_2_layer_3, GENERATE
20589800,20589800,1
20590997,20591003,1
20592195,20592205,1
20593395,20593405,1
20594594,20594606,1
20595793,20595807,1
20596993,20597007,1
20598193,20598207,1
20599393,20599407,1
20600593,20600607,1
20601793,20601807,1
20602993,20603007,1
20604193,20604207,1
20605394,20605406,1
20606595,20606605,1
20607795,20607805,1
*ELSET, ELSET=hole_3_layer_1, GENERATE
  694100,  694100,1
  695294,  695306,1
  696492,  696508,1
  697690,  697710,1
  698888,  698912,1
  700087,  700113,1
  701286,  701314,1
  702485,  702515,1
  703684,  703716,1
  704883,  704917,1
  706083,  706117,1
  707282,  707318,1
  708482,  708518,1
  709681,  709719,1
  710881,  710919,1
  712080,  712120,1
  713280,  713320,1
  714480,  714520,1
  715680,  715720,1
  716880,  716920,1
** ... 22 like lines cut
*ELSET, ELSET=hole_3_layer_2, GENERATE
10696500,10696500,1
10697695,10697705,1
10698892,10698908,1
10700091,10700109,1
10701289,10701311,1
10702488,10702512,1
10703687,10703713,1
10704886,10704914,1
10706085,10706115,1
10707284,10707316,1
10708484,10708516,1
10709683,10709717,1
10710883,10710917,1
10712083,10712117,1
10713282,10713318,1
10714482,10714518,1
10715682,10715718,1
10716882,10716918,1
10718082,10718118,1
10719282,10719318,1
** ... 18 like lines cut
*ELSET, ELSET=hole_3_layer_3, GENERATE
20698900,20698900,1
20700095,20700105,1
20701293,20701307,1
20702491,20702509,1
20703690,20703710,1
20704889,20704911,1
20706088,20706112,1
20707287,20707313,1
20708486,20708514,1
20709686,20709714,1
20710885,20710915,1
20712085,20712115,1
20713284,20713316,1
20714484,20714516,1
20715684,20715716,1
20716884,20716916,1
20718084,20718116,1
20719283,20719317,1
20720484,20720516,1
20721684,20721716,1
** ... 14 like lines cut
*ELSET, ELSET=hole_3_layer_4, GENERATE
30701300,30701300,1
30702496,30702504,1
30703693,30703707,1
30704892,30704908,1
30706090,30706110,1
30707290,30707310,1
30708489,30708511,1
30709688,30709712,1
30710888,30710912,1
30712087,30712113,1
30713287,30713313,1
30714486,30714514,1
30715686,30715714,1
30716886,30716914,1
30718086,30718114,1
30719286,30719314,1
30720486,30720514,1
30721686,30721714,1
30722886,30722914,1
30724086,30724114,1
** ... 10 like lines cut
***********************************************************************************
*End Part
***********************************************************************************
** ASSEMBLY
***********************************************************************************
*Assembly, name=Assembly
***********************************************************************************    
*Instance, name=Part-1-1, part=Part-1
***********************************************************************************
***********************************************************************************
**Material of absorbing boundary layers, use for this Matlab file
**absorber_fd_alpha_04.m and absorber_fd_alpha_multiple.m
***********************************************************************************
*SOLID SECTION,ELSET=layer1,MATERIAL=abs_mat1
*SOLID SECTION,ELSET=layer2,MATERIAL=abs_mat2
*SOLID SECTION,ELSET=layer3,MATERIAL=abs_mat3
*SOLID SECTION,ELSET=layer4,MATERIAL=abs_mat4
*SOLID SECTION,ELSET=layer5,MATERIAL=abs_mat5
*SOLID SECTION,ELSET=layer6,MATERIAL=abs_mat6
*SOLID SECTION,ELSET=layer7,MATERIAL=abs_mat7
*SOLID SECTION,ELSET=layer8,MATERIAL=abs_mat8
*SOLID SECTION,ELSET=layer9,MATERIAL=abs_mat9
*SOLID SECTION,ELSET=layer10,MATERIAL=abs_mat10
*SOLID SECTION,ELSET=layer11,MATERIAL=abs_mat11
*SOLID SECTION,ELSET=layer12,MATERIAL=abs_mat12
*SOLID SECTION,ELSET=layer13,MATERIAL=abs_mat13
*SOLID SECTION,ELSET=layer14,MATERIAL=abs_mat14
*SOLID SECTION,ELSET=layer15,MATERIAL=abs_mat15
*SOLID SECTION,ELSET=layer16,MATERIAL=abs_mat16
*SOLID SECTION,ELSET=layer17,MATERIAL=abs_mat17
*SOLID SECTION,ELSET=layer18,MATERIAL=abs_mat18
*SOLID SECTION,ELSET=layer19,MATERIAL=abs_mat19
*SOLID SECTION,ELSET=layer20,MATERIAL=abs_mat20
** ... 980 like lines cut
*Solid Section, elset=Metal_plate_part1, material=Metal
*Solid Section, elset=Metal_plate_part2, material=Metal
*Solid Section, elset=Metal_plate_part3, material=Metal
*Solid Section, elset=Metal_plate_part4, material=Metal
*Solid Section, elset=Metal_plate_part5, material=Metal
*Solid Section, elset=Metal_plate_part6, material=Metal
*Solid Section, elset=Metal_plate_part7, material=Metal
*Solid Section, elset=Metal_plate_part8, material=Metal
*Solid Section, elset=Metal_plate_part9, material=Metal
*Solid Section, elset=Metal_plate_part10, material=Metal
*Solid Section, elset=hole_1_layer_1, material=Flaw
*Solid Section, elset=hole_1_layer_2, material=Flaw
*Solid Section, elset=hole_1_layer_3, material=Flaw
*Solid Section, elset=hole_1_layer_4, material=Flaw
*Solid Section, elset=hole_1_layer_5, material=Flaw
*Solid Section, elset=hole_2_layer_1, material=Flaw
*Solid Section, elset=hole_2_layer_2, material=Flaw
*Solid Section, elset=hole_2_layer_3, material=Flaw
*Solid Section, elset=hole_3_layer_1, material=Flaw
*Solid Section, elset=hole_3_layer_2, material=Flaw
*Solid Section, elset=hole_3_layer_3, material=Flaw
*Solid Section, elset=hole_3_layer_4, material=Flaw
***********************************************************************************
*End Instance
***********************************************************************************
***********************************************************************************
**Source/receiver definition
***********************************************************************************
*parameter
Rec1=1201601
Rec2=1199239
Rec3=1192071
Rec4=1182501
Rec5=1165725
Rec6=1146545
Rec7=1122557
Rec8=1093765
Rec9=1062569
Rec10=1026565
Rec11=988157
Rec12=949745
Rec13=906525
Rec14=860901
Rec15=815271
Rec16=769639
Rec17=721601
Rec18=675961
Rec19=627915
Rec20=582269
** ... 53 like lines cut
***********************************************************************************
*NSET,NSET=Rec1,instance=Part-1-1
<Rec1>
*NSET,NSET=Rec2,instance=Part-1-1
<Rec2>
*NSET,NSET=Rec3,instance=Part-1-1
<Rec3>
*NSET,NSET=Rec4,instance=Part-1-1
<Rec4>
*NSET,NSET=Rec5,instance=Part-1-1
<Rec5>
*NSET,NSET=Rec6,instance=Part-1-1
<Rec6>
*NSET,NSET=Rec7,instance=Part-1-1
<Rec7>
*NSET,NSET=Rec8,instance=Part-1-1
<Rec8>
*NSET,NSET=Rec9,instance=Part-1-1
<Rec9>
*NSET,NSET=Rec10,instance=Part-1-1
<Rec10>
*NSET,NSET=Rec11,instance=Part-1-1
<Rec11>
*NSET,NSET=Rec12,instance=Part-1-1
<Rec12>
*NSET,NSET=Rec13,instance=Part-1-1
<Rec13>
*NSET,NSET=Rec14,instance=Part-1-1
<Rec14>
*NSET,NSET=Rec15,instance=Part-1-1
<Rec15>
*NSET,NSET=Rec16,instance=Part-1-1
<Rec16>
*NSET,NSET=Rec17,instance=Part-1-1
<Rec17>
*NSET,NSET=Rec18,instance=Part-1-1
<Rec18>
*NSET,NSET=Rec19,instance=Part-1-1
<Rec19>
*NSET,NSET=Rec20,instance=Part-1-1
<Rec20>
** ... 88 like lines cut
*NSET,NSET=Monitor_1,instance=Part-1-1
<Rec1>
<Rec2>
<Rec3>
<Rec4>
<Rec5>
<Rec6>
<Rec7>
<Rec8>
<Rec9>
<Rec10>
<Rec11>
<Rec12>
<Rec13>
<Rec14>
<Rec15>
<Rec16>
<Rec17>
<Rec18>
<Rec19>
<Rec20>
** ... 53 like lines cut
***********************************************************************************
*End Assembly
***********************************************************************************
***********************************************************************************
**Properties definiton
***********************************************************************************
**
*MATERIAL,NAME=Metal
*Density
2700.,
*Depvar
      4,
*User Material, constants=5
 5.528e+10,   2.594e+10,  -2.522e+11, -3.249e+11, -3.512e+11
*MATERIAL,NAME=Flaw
*Density
2700.,
*Depvar
      4,
*User Material, constants=5
 5.528e+10,   2.594e+10,  -2.522e+11, -3.249e+11, -3.512e+11
**
***********************************************************************************
**Definition of absorbing boundary layers of the upper set, use for this Matlab file
**absorber_fd_alpha_04.m
***********************************************************************************
*parameter
K=5e5
alpha1=K*1
alpha2=K*0.9703
alpha3=K*0.94119
alpha4=K*0.91267
alpha5=K*0.88474
alpha6=K*0.85737
alpha7=K*0.83058
alpha8=K*0.80436
alpha9=K*0.77869
alpha10=K*0.75357
alpha11=K*0.729
alpha12=K*0.70497
alpha13=K*0.68147
alpha14=K*0.6585
alpha15=K*0.63606
alpha16=K*0.61412
alpha17=K*0.5927
alpha18=K*0.57179
alpha19=K*0.55137
alpha20=K*0.53144
** ... 80 like lines cut
**
**
*MATERIAL,NAME=abs_mat1
*ELASTIC, TYPE=isotropic
70000000000,0.33
*DENSITY
2800
*DAMPING, ALPHA=<alpha1>
*MATERIAL,NAME=abs_mat2
*ELASTIC, TYPE=isotropic
70000000000,0.33
*DENSITY
2800
*DAMPING, ALPHA=<alpha2>
*MATERIAL,NAME=abs_mat3
*ELASTIC, TYPE=isotropic
70000000000,0.33
*DENSITY
2800
*DAMPING, ALPHA=<alpha3>
*MATERIAL,NAME=abs_mat4
*ELASTIC, TYPE=isotropic
70000000000,0.33
*DENSITY
2800
*DAMPING, ALPHA=<alpha4>
*MATERIAL,NAME=abs_mat5
*ELASTIC, TYPE=isotropic
70000000000,0.33
*DENSITY
2800
*DAMPING, ALPHA=<alpha5>
*MATERIAL,NAME=abs_mat6
*ELASTIC, TYPE=isotropic
70000000000,0.33
*DENSITY
2800
*DAMPING, ALPHA=<alpha6>
*MATERIAL,NAME=abs_mat7
*ELASTIC, TYPE=isotropic
70000000000,0.33
*DENSITY
2800
*DAMPING, ALPHA=<alpha7>
*MATERIAL,NAME=abs_mat8
*ELASTIC, TYPE=isotropic
70000000000,0.33
*DENSITY
2800
*DAMPING, ALPHA=<alpha8>
*MATERIAL,NAME=abs_mat9
*ELASTIC, TYPE=isotropic
70000000000,0.33
*DENSITY
2800
*DAMPING, ALPHA=<alpha9>
*MATERIAL,NAME=abs_mat10
*ELASTIC, TYPE=isotropic
70000000000,0.33
*DENSITY
2800
*DAMPING, ALPHA=<alpha10>
*MATERIAL,NAME=abs_mat11
*ELASTIC, TYPE=isotropic
70000000000,0.33
*DENSITY
2800
*DAMPING, ALPHA=<alpha11>
*MATERIAL,NAME=abs_mat12
*ELASTIC, TYPE=isotropic
70000000000,0.33
*DENSITY
2800
*DAMPING, ALPHA=<alpha12>
*MATERIAL,NAME=abs_mat13
*ELASTIC, TYPE=isotropic
70000000000,0.33
*DENSITY
2800
*DAMPING, ALPHA=<alpha13>
*MATERIAL,NAME=abs_mat14
*ELASTIC, TYPE=isotropic
70000000000,0.33
*DENSITY
2800
*DAMPING, ALPHA=<alpha14>
*MATERIAL,NAME=abs_mat15
*ELASTIC, TYPE=isotropic
70000000000,0.33
*DENSITY
2800
*DAMPING, ALPHA=<alpha15>
*MATERIAL,NAME=abs_mat16
*ELASTIC, TYPE=isotropic
70000000000,0.33
*DENSITY
2800
*DAMPING, ALPHA=<alpha16>
*MATERIAL,NAME=abs_mat17
*ELASTIC, TYPE=isotropic
70000000000,0.33
*DENSITY
2800
*DAMPING, ALPHA=<alpha17>
*MATERIAL,NAME=abs_mat18
*ELASTIC, TYPE=isotropic
70000000000,0.33
*DENSITY
2800
*DAMPING, ALPHA=<alpha18>
*MATERIAL,NAME=abs_mat19
*ELASTIC, TYPE=isotropic
70000000000,0.33
*DENSITY
2800
*DAMPING, ALPHA=<alpha19>
*MATERIAL,NAME=abs_mat20
*ELASTIC, TYPE=isotropic
70000000000,0.33
*DENSITY
2800
*DAMPING, ALPHA=<alpha20>
*MATERIAL,NAME=abs_mat21
*ELASTIC, TYPE=isotropic
70000000000,0.33
*DENSITY
2800
*DAMPING, ALPHA=<alpha21>
*MATERIAL,NAME=abs_mat22
*ELASTIC, TYPE=isotropic
70000000000,0.33
*DENSITY
2800
*DAMPING, ALPHA=<alpha22>
*MATERIAL,NAME=abs_mat23
*ELASTIC, TYPE=isotropic
70000000000,0.33
*DENSITY
2800
*DAMPING, ALPHA=<alpha23>
*MATERIAL,NAME=abs_mat24
*ELASTIC, TYPE=isotropic
70000000000,0.33
*DENSITY
2800
*DAMPING, ALPHA=<alpha24>
*MATERIAL,NAME=abs_mat25
*ELASTIC, TYPE=isotropic
70000000000,0.33
*DENSITY
2800
*DAMPING, ALPHA=<alpha25>
*MATERIAL,NAME=abs_mat26
*ELASTIC, TYPE=isotropic
70000000000,0.33
*DENSITY
2800
*DAMPING, ALPHA=<alpha26>
*MATERIAL,NAME=abs_mat27
*ELASTIC, TYPE=isotropic
70000000000,0.33
*DENSITY
2800
*DAMPING, ALPHA=<alpha27>
*MATERIAL,NAME=abs_mat28
*ELASTIC, TYPE=isotropic
70000000000,0.33
*DENSITY
2800
*DAMPING, ALPHA=<alpha28>
*MATERIAL,NAME=abs_mat29
*ELASTIC, TYPE=isotropic
70000000000,0.33
*DENSITY
2800
*DAMPING, ALPHA=<alpha29>
*MATERIAL,NAME=abs_mat30
*ELASTIC, TYPE=isotropic
70000000000,0.33
*DENSITY
2800
*DAMPING, ALPHA=<alpha30>
*MATERIAL,NAME=abs_mat31
*ELASTIC, TYPE=isotropic
70000000000,0.33
*DENSITY
2800
*DAMPING, ALPHA=<alpha31>
*MATERIAL,NAME=abs_mat32
*ELASTIC, TYPE=isotropic
70000000000,0.33
*DENSITY
2800
*DAMPING, ALPHA=<alpha32>
*MATERIAL,NAME=abs_mat33
*ELASTIC, TYPE=isotropic
70000000000,0.33
*DENSITY
2800
*DAMPING, ALPHA=<alpha33>
*MATERIAL,NAME=abs_mat34
*ELASTIC, TYPE=isotropic
70000000000,0.33
*DENSITY
2800
*DAMPING, ALPHA=<alpha34>
*MATERIAL,NAME=abs_mat35
*ELASTIC, TYPE=isotropic
70000000000,0.33
*DENSITY
2800
*DAMPING, ALPHA=<alpha35>
*MATERIAL,NAME=abs_mat36
*ELASTIC, TYPE=isotropic
70000000000,0.33
*DENSITY
2800
*DAMPING, ALPHA=<alpha36>
*MATERIAL,NAME=abs_mat37
*ELASTIC, TYPE=isotropic
70000000000,0.33
*DENSITY
2800
*DAMPING, ALPHA=<alpha37>
*MATERIAL,NAME=abs_mat38
*ELASTIC, TYPE=isotropic
70000000000,0.33
*DENSITY
2800
*DAMPING, ALPHA=<alpha38>
*MATERIAL,NAME=abs_mat39
*ELASTIC, TYPE=isotropic
70000000000,0.33
*DENSITY
2800
*DAMPING, ALPHA=<alpha39>
*MATERIAL,NAME=abs_mat40
*ELASTIC, TYPE=isotropic
70000000000,0.33
*DENSITY
2800
*DAMPING, ALPHA=<alpha40>
*MATERIAL,NAME=abs_mat41
*ELASTIC, TYPE=isotropic
70000000000,0.33
*DENSITY
2800
*DAMPING, ALPHA=<alpha41>
*MATERIAL,NAME=abs_mat42
*ELASTIC, TYPE=isotropic
70000000000,0.33
*DENSITY
2800
*DAMPING, ALPHA=<alpha42>
*MATERIAL,NAME=abs_mat43
*ELASTIC, TYPE=isotropic
70000000000,0.33
*DENSITY
2800
*DAMPING, ALPHA=<alpha43>
*MATERIAL,NAME=abs_mat44
*ELASTIC, TYPE=isotropic
70000000000,0.33
*DENSITY
2800
*DAMPING, ALPHA=<alpha44>
*MATERIAL,NAME=abs_mat45
*ELASTIC, TYPE=isotropic
70000000000,0.33
*DENSITY
2800
*DAMPING, ALPHA=<alpha45>
*MATERIAL,NAME=abs_mat46
*ELASTIC, TYPE=isotropic
70000000000,0.33
*DENSITY
2800
*DAMPING, ALPHA=<alpha46>
*MATERIAL,NAME=abs_mat47
*ELASTIC, TYPE=isotropic
70000000000,0.33
*DENSITY
2800
*DAMPING, ALPHA=<alpha47>
*MATERIAL,NAME=abs_mat48
*ELASTIC, TYPE=isotropic
70000000000,0.33
*DENSITY
2800
*DAMPING, ALPHA=<alpha48>
*MATERIAL,NAME=abs_mat49
*ELASTIC, TYPE=isotropic
70000000000,0.33
*DENSITY
2800
*DAMPING, ALPHA=<alpha49>
*MATERIAL,NAME=abs_mat50
*ELASTIC, TYPE=isotropic
70000000000,0.33
*DENSITY
2800
*DAMPING, ALPHA=<alpha50>
*MATERIAL,NAME=abs_mat51
*ELASTIC, TYPE=isotropic
70000000000,0.33
*DENSITY
2800
*DAMPING, ALPHA=<alpha51>
*MATERIAL,NAME=abs_mat52
*ELASTIC, TYPE=isotropic
70000000000,0.33
*DENSITY
2800
*DAMPING, ALPHA=<alpha52>
*MATERIAL,NAME=abs_mat53
*ELASTIC, TYPE=isotropic
70000000000,0.33
*DENSITY
2800
*DAMPING, ALPHA=<alpha53>
*MATERIAL,NAME=abs_mat54
*ELASTIC, TYPE=isotropic
70000000000,0.33
*DENSITY
2800
*DAMPING, ALPHA=<alpha54>
*MATERIAL,NAME=abs_mat55
*ELASTIC, TYPE=isotropic
70000000000,0.33
*DENSITY
2800
*DAMPING, ALPHA=<alpha55>
*MATERIAL,NAME=abs_mat56
*ELASTIC, TYPE=isotropic
70000000000,0.33
*DENSITY
2800
*DAMPING, ALPHA=<alpha56>
*MATERIAL,NAME=abs_mat57
*ELASTIC, TYPE=isotropic
70000000000,0.33
*DENSITY
2800
*DAMPING, ALPHA=<alpha57>
*MATERIAL,NAME=abs_mat58
*ELASTIC, TYPE=isotropic
70000000000,0.33
*DENSITY
2800
*DAMPING, ALPHA=<alpha58>
*MATERIAL,NAME=abs_mat59
*ELASTIC, TYPE=isotropic
70000000000,0.33
*DENSITY
2800
*DAMPING, ALPHA=<alpha59>
*MATERIAL,NAME=abs_mat60
*ELASTIC, TYPE=isotropic
70000000000,0.33
*DENSITY
2800
*DAMPING, ALPHA=<alpha60>
*MATERIAL,NAME=abs_mat61
*ELASTIC, TYPE=isotropic
70000000000,0.33
*DENSITY
2800
*DAMPING, ALPHA=<alpha61>
*MATERIAL,NAME=abs_mat62
*ELASTIC, TYPE=isotropic
70000000000,0.33
*DENSITY
2800
*DAMPING, ALPHA=<alpha62>
*MATERIAL,NAME=abs_mat63
*ELASTIC, TYPE=isotropic
70000000000,0.33
*DENSITY
2800
*DAMPING, ALPHA=<alpha63>
*MATERIAL,NAME=abs_mat64
*ELASTIC, TYPE=isotropic
70000000000,0.33
*DENSITY
2800
*DAMPING, ALPHA=<alpha64>
*MATERIAL,NAME=abs_mat65
*ELASTIC, TYPE=isotropic
70000000000,0.33
*DENSITY
2800
*DAMPING, ALPHA=<alpha65>
*MATERIAL,NAME=abs_mat66
*ELASTIC, TYPE=isotropic
70000000000,0.33
*DENSITY
2800
*DAMPING, ALPHA=<alpha66>
*MATERIAL,NAME=abs_mat67
*ELASTIC, TYPE=isotropic
70000000000,0.33
*DENSITY
2800
*DAMPING, ALPHA=<alpha67>
*MATERIAL,NAME=abs_mat68
*ELASTIC, TYPE=isotropic
70000000000,0.33
*DENSITY
2800
*DAMPING, ALPHA=<alpha68>
*MATERIAL,NAME=abs_mat69
*ELASTIC, TYPE=isotropic
70000000000,0.33
*DENSITY
2800
*DAMPING, ALPHA=<alpha69>
*MATERIAL,NAME=abs_mat70
*ELASTIC, TYPE=isotropic
70000000000,0.33
*DENSITY
2800
*DAMPING, ALPHA=<alpha70>
*MATERIAL,NAME=abs_mat71
*ELASTIC, TYPE=isotropic
70000000000,0.33
*DENSITY
2800
*DAMPING, ALPHA=<alpha71>
*MATERIAL,NAME=abs_mat72
*ELASTIC, TYPE=isotropic
70000000000,0.33
*DENSITY
2800
*DAMPING, ALPHA=<alpha72>
*MATERIAL,NAME=abs_mat73
*ELASTIC, TYPE=isotropic
70000000000,0.33
*DENSITY
2800
*DAMPING, ALPHA=<alpha73>
*MATERIAL,NAME=abs_mat74
*ELASTIC, TYPE=isotropic
70000000000,0.33
*DENSITY
2800
*DAMPING, ALPHA=<alpha74>
*MATERIAL,NAME=abs_mat75
*ELASTIC, TYPE=isotropic
70000000000,0.33
*DENSITY
2800
*DAMPING, ALPHA=<alpha75>
*MATERIAL,NAME=abs_mat76
*ELASTIC, TYPE=isotropic
70000000000,0.33
*DENSITY
2800
*DAMPING, ALPHA=<alpha76>
*MATERIAL,NAME=abs_mat77
*ELASTIC, TYPE=isotropic
70000000000,0.33
*DENSITY
2800
*DAMPING, ALPHA=<alpha77>
*MATERIAL,NAME=abs_mat78
*ELASTIC, TYPE=isotropic
70000000000,0.33
*DENSITY
2800
*DAMPING, ALPHA=<alpha78>
*MATERIAL,NAME=abs_mat79
*ELASTIC, TYPE=isotropic
70000000000,0.33
*DENSITY
2800
*DAMPING, ALPHA=<alpha79>
*MATERIAL,NAME=abs_mat80
*ELASTIC, TYPE=isotropic
70000000000,0.33
*DENSITY
2800
*DAMPING, ALPHA=<alpha80>
*MATERIAL,NAME=abs_mat81
*ELASTIC, TYPE=isotropic
70000000000,0.33
*DENSITY
2800
*DAMPING, ALPHA=<alpha81>
*MATERIAL,NAME=abs_mat82
*ELASTIC, TYPE=isotropic
70000000000,0.33
*DENSITY
2800
*DAMPING, ALPHA=<alpha82>
*MATERIAL,NAME=abs_mat83
*ELASTIC, TYPE=isotropic
70000000000,0.33
*DENSITY
2800
*DAMPING, ALPHA=<alpha83>
*MATERIAL,NAME=abs_mat84
*ELASTIC, TYPE=isotropic
70000000000,0.33
*DENSITY
2800
*DAMPING, ALPHA=<alpha84>
*MATERIAL,NAME=abs_mat85
*ELASTIC, TYPE=isotropic
70000000000,0.33
*DENSITY
2800
*DAMPING, ALPHA=<alpha85>
*MATERIAL,NAME=abs_mat86
*ELASTIC, TYPE=isotropic
70000000000,0.33
*DENSITY
2800
*DAMPING, ALPHA=<alpha86>
*MATERIAL,NAME=abs_mat87
*ELASTIC, TYPE=isotropic
70000000000,0.33
*DENSITY
2800
*DAMPING, ALPHA=<alpha87>
*MATERIAL,NAME=abs_mat88
*ELASTIC, TYPE=isotropic
70000000000,0.33
*DENSITY
2800
*DAMPING, ALPHA=<alpha88>
*MATERIAL,NAME=abs_mat89
*ELASTIC, TYPE=isotropic
70000000000,0.33
*DENSITY
2800
*DAMPING, ALPHA=<alpha89>
*MATERIAL,NAME=abs_mat90
*ELASTIC, TYPE=isotropic
70000000000,0.33
*DENSITY
2800
*DAMPING, ALPHA=<alpha90>
*MATERIAL,NAME=abs_mat91
*ELASTIC, TYPE=isotropic
70000000000,0.33
*DENSITY
2800
*DAMPING, ALPHA=<alpha91>
*MATERIAL,NAME=abs_mat92
*ELASTIC, TYPE=isotropic
70000000000,0.33
*DENSITY
2800
*DAMPING, ALPHA=<alpha92>
*MATERIAL,NAME=abs_mat93
*ELASTIC, TYPE=isotropic
70000000000,0.33
*DENSITY
2800
*DAMPING, ALPHA=<alpha93>
*MATERIAL,NAME=abs_mat94
*ELASTIC, TYPE=isotropic
70000000000,0.33
*DENSITY
2800
*DAMPING, ALPHA=<alpha94>
*MATERIAL,NAME=abs_mat95
*ELASTIC, TYPE=isotropic
70000000000,0.33
*DENSITY
2800
*DAMPING, ALPHA=<alpha95>
*MATERIAL,NAME=abs_mat96
*ELASTIC, TYPE=isotropic
70000000000,0.33
*DENSITY
2800
*DAMPING, ALPHA=<alpha96>
*MATERIAL,NAME=abs_mat97
*ELASTIC, TYPE=isotropic
70000000000,0.33
*DENSITY
2800
*DAMPING, ALPHA=<alpha97>
*MATERIAL,NAME=abs_mat98
*ELASTIC, TYPE=isotropic
70000000000,0.33
*DENSITY
2800
*DAMPING, ALPHA=<alpha98>
*MATERIAL,NAME=abs_mat99
*ELASTIC, TYPE=isotropic
70000000000,0.33
*DENSITY
2800
*DAMPING, ALPHA=<alpha99>
*MATERIAL,NAME=abs_mat100
*ELASTIC, TYPE=isotropic
70000000000,0.33
*DENSITY
2800
*DAMPING, ALPHA=<alpha100>
***********************************************************************************
**Amplitude definition
***********************************************************************************
**
**-XZ No need in the base simulation
*AMPLITUDE,TIME=TOTAL TIME,NAME=A0,INPUT=Gauss2_60120Hz.txt,DEFINITION=TABULAR  
**                                                                                               
***********************************************************************************
**Step definition
*********************************************************************************** 
**-ZX this is essentially a dummy step (no load)
*Step, name=Step-0, nlgeom=YES
displacement boundary condition 
*Dynamic, Explicit,direct user control
<Time_step>,<Total_time>
*Bulk Viscosity
0., 0.
***********************************************************************************
**Load
***********************************************************************************
** Name: Load-Base Type: Displacement/Rotation
**                                
*Boundary
Rec1,1,1,0.0                    
**                                    
**                                             
** OUTPUT REQUESTS
** 
**-ZX Set the interval to be small so you will have smaller files
**-zx overlay will also keep only one restart point (lagest) for smaller files
*Restart, write, number interval=2, time marks=NO, overlay
** 
** HISTORY OUTPUT: H-Output-1
** 
*Output, history, time interval=<Time_output_step>
*Node Output, nset=Monitor_1
U3
**
*End Step         

