*Heading
** Job name: 3DShear Model name: Model-1
** Generated by: Abaqus/CAE 6.14-3
*Preprint, echo=NO, model=NO, history=NO, contact=NO
**
** PARTS
**
*Part, name=Part-1
*Node
      1,          0.5,          0.5,           1.
      2,          0.5,         -0.5,           1.
      3,          0.5,          0.5,           0.
      4,          0.5,         -0.5,           0.
      5,         -0.5,          0.5,           1.
      6,         -0.5,         -0.5,           1.
      7,         -0.5,          0.5,           0.
      8,         -0.5,         -0.5,           0.
*Element, type=C3D8RH
1, 5, 6, 8, 7, 1, 2, 4, 3
*Nset, nset=_PickedSet2, internal, generate
 1,  8,  1
*Elset, elset=_PickedSet2, internal
 1,
** Section: Section-1
*Solid Section, elset=_PickedSet2, controls=EC-1, material=Material-1
,
*End Part
**  
**
** ASSEMBLY
**
*Assembly, name=Assembly
**  
*Instance, name=Part-1-1, part=Part-1
*End Instance
**  
*Nset, nset=_PickedSet4, internal, instance=Part-1-1, generate
 1,  7,  2
*Elset, elset=_PickedSet4, internal, instance=Part-1-1
 1,
*Nset, nset=_PickedSet5, internal, instance=Part-1-1, generate
 2,  8,  2
*Elset, elset=_PickedSet5, internal, instance=Part-1-1
 1,
*End Assembly
** 
** ELEMENT CONTROLS
** 
*Section Controls, name=EC-1, hourglass=ENHANCED
1., 1., 1.
** 
** MATERIALS
** 
*Material, name=Material-1
*Depvar
      4,
*Hyperelastic, user, type=COMPRESSIBLE, properties=5
90.9E9, 78E9, 358E9, -265E9, -182E9
** ----------------------------------------------------------------
** 
** STEP: Step-1
** 
*Step, name=Step-1, nlgeom=YES
*Static
0.1, 1., 1e-05, 0.1
** 
** BOUNDARY CONDITIONS
** 
** Name: BC-1 Type: Displacement/Rotation
*Boundary
_PickedSet4, 1, 1, 0.3
_PickedSet4, 2, 2
_PickedSet4, 3, 3
** Name: BC-2 Type: Displacement/Rotation
*Boundary
_PickedSet5, 1, 1
_PickedSet5, 2, 2
_PickedSet5, 3, 3
** 
** OUTPUT REQUESTS
** 
*Restart, write, frequency=0
** 
** FIELD OUTPUT: F-Output-1
** 
*Output, field, variable=PRESELECT
** 
** HISTORY OUTPUT: H-Output-1
** 
*Output, history, variable=PRESELECT
*End Step
